38
XYZ file generated by PYTHON : coordinates in Angstrom
SI  -0.019685117853626165  4.330705992976711  -2.4989193861608845
SI  0.003990356799997983  4.890954712675699  -1.0385307292555075
SI  0.02727522752758768  4.972442707812719  0.5235165512984679
SI  0.04789020894709244  4.567193365663509  2.0343183842570554
SI  0.06381736304414978  3.7148753153758296  3.3459869598349328
SI  0.0734976290047319  2.498919386160885  4.330127018922192
SI  0.07598343495023814  1.0383518164333598  4.890404075628384
SI  0.0710314528750939  -0.523856863709173  4.97197430796331
SI  0.0591264172873022  -2.034786784106462  4.566853053252803
SI  0.04143367601745645  -3.346537596882248  3.7146964025536815
C  0.019685117853626175  -4.330705992976711  2.498919386160885
C  -0.00399035679999797  -4.890954712675699  1.0385307292555084
C  -0.027275227527587667  -4.972442707812719  -0.5235165512984666
C  -0.04789020894709243  -4.567193365663509  -2.034318384257054
C  -0.06381736304414978  -3.71487531537583  -3.3459869598349323
C  -0.0734976290047319  -2.4989193861608854  -4.330127018922191
C  -0.07598343495023814  -1.0383518164333605  -4.890404075628384
C  -0.07103145287509391  0.5238568637091725  -4.97197430796331
C  -0.05912641728730221  2.0347867841064615  -4.566853053252803
C  -0.041433676017456456  3.3465375968822477  -3.714696402553682
C  0.0  0.0  0.0
C  1.0  -0.5  0.0
C  2.0  0.5  0.0
C  3.0  -0.5  0.0
C  4.0  0.5  0.0
C  5.0  -0.5  0.0
C  6.0  0.5  0.0
C  7.0  -0.5  0.0
C  8.0  0.5  0.0
S  9.0  -0.5  0.0
S  10.0  0.5  0.0
S  11.0  -0.5  0.0
S  12.0  0.5  0.0
S  13.0  -0.5  0.0
S  14.0  0.5  0.0
S  15.0  -0.5  0.0
S  16.0  0.5  0.0
S  17.0  -0.5  0.0

