38
XYZ file generated by PYTHON : coordinates in Angstrom
SI  0.0  4.92403876506104  0.8682408883346516
SI  0.0  4.414737964294634  2.3473578139294538
SI  0.0  3.4732918522949863  3.596699001693256
SI  0.0  2.191855733945387  4.493970231495835
SI  0.0  0.6958655048003276  4.951340343707851
SI  0.0  -0.8682408883346514  4.92403876506104
SI  0.0  -2.3473578139294538  4.414737964294635
SI  0.0  -3.596699001693255  3.4732918522949867
SI  0.0  -4.493970231495834  2.191855733945388
SI  0.0  -4.951340343707852  0.6958655048003277
C  0.0  -4.92403876506104  -0.8682408883346511
C  0.0  -4.414737964294636  -2.3473578139294533
C  0.0  -3.4732918522949876  -3.596699001693255
C  0.0  -2.191855733945388  -4.493970231495834
C  0.0  -0.6958655048003278  -4.951340343707851
C  0.0  0.8682408883346507  -4.924038765061041
C  0.0  2.347357813929453  -4.414737964294635
C  0.0  3.5966990016932545  -3.4732918522949876
C  0.0  4.493970231495834  -2.1918557339453884
C  0.0  4.951340343707852  -0.6958655048003284
C  0.0  0.0  0.0
C  1.0  -0.5  0.0
C  2.0  0.5  0.0
C  3.0  -0.5  0.0
C  4.0  0.5  0.0
C  5.0  -0.5  0.0
C  6.0  0.5  0.0
C  7.0  -0.5  0.0
C  8.0  0.5  0.0
S  9.0  -0.5  0.0
S  10.0  0.5  0.0
S  11.0  -0.5  0.0
S  12.0  0.5  0.0
S  13.0  -0.5  0.0
S  14.0  0.5  0.0
S  15.0  -0.5  0.0
S  16.0  0.5  0.0
S  17.0  -0.5  0.0

