38
XYZ file generated by PYTHON : coordinates in Angstrom
SI  -0.2741783220772295  -4.322062950625804  -2.498919386160883
SI  -0.2380470634296932  -3.338317575133804  -3.7146964025536797
SI  -0.17861409964224156  -2.027794415961478  -4.566853053252802
SI  -0.10169714330419817  -0.5187766108803733  -4.97197430796331
SI  -0.014825362013877843  1.0410226634028898  -4.890404075628384
SI  0.07349762900473183  2.4989193861608827  -4.330127018922193
SI  0.15462616000826565  3.712204468406296  -3.345986959834935
SI  0.22061880512638438  4.562113112834705  -2.0343183842570576
SI  0.26501574445713133  4.965450339667731  -0.5235165512984706
SI  0.2834710962471476  4.882734690927254  1.0385307292555053
C  0.2741783220772295  4.322062950625804  2.4989193861608827
C  0.23804706342969326  3.3383175751338054  3.7146964025536797
C  0.17861409964224165  2.027794415961479  4.566853053252802
C  0.10169714330419821  0.5187766108803737  4.97197430796331
C  0.014825362013877857  -1.0410226634028894  4.890404075628384
C  -0.07349762900473181  -2.4989193861608823  4.330127018922194
C  -0.1546261600082656  -3.712204468406295  3.3459869598349354
C  -0.22061880512638435  -4.562113112834705  2.0343183842570585
C  -0.26501574445713133  -4.965450339667731  0.5235165512984711
C  -0.2834710962471476  -4.882734690927254  -1.0385307292555048
C  0.0  0.0  0.0
C  1.0  -0.5  0.0
C  2.0  0.5  0.0
C  3.0  -0.5  0.0
C  4.0  0.5  0.0
C  5.0  -0.5  0.0
C  6.0  0.5  0.0
C  7.0  -0.5  0.0
C  8.0  0.5  0.0
S  9.0  -0.5  0.0
S  10.0  0.5  0.0
S  11.0  -0.5  0.0
S  12.0  0.5  0.0
S  13.0  -0.5  0.0
S  14.0  0.5  0.0
S  15.0  -0.5  0.0
S  16.0  0.5  0.0
S  17.0  -0.5  0.0

