38
XYZ file generated by PYTHON : coordinates in Angstrom
SI  -0.25948794756285753  -3.822590217137159  -3.212548838059415
SI  -0.2175896979526563  -2.64276714891455  -4.2389192632041155
SI  -0.1543922526702786  -1.2042516189147372  -4.850354736579236
SI  -0.07608181798245621  0.3521444500588531  -4.987003693929375
SI  0.009676035142685047  1.874070166726028  -4.635489983219831
SI  0.09448673053115926  3.212548838059415  -3.8302222155948904
SI  0.17004840640748145  4.236560845979634  -2.650025610780131
SI  0.2289645594677243  4.845868760440262  -1.2104260353680856
SI  0.26546806615737534  4.980829277476027  0.34765847391987886
SI  0.27598570890676516  4.628231521354251  1.8717117495015454
C  0.25948794756285753  3.8225902171371593  3.2125488380594147
C  0.2175896979526564  2.6427671489145514  4.2389192632041155
C  0.15439225267027867  1.2042516189147383  4.850354736579236
C  0.07608181798245625  -0.35214445005885203  4.987003693929375
C  -0.009676035142685033  -1.8740701667260276  4.635489983219831
C  -0.09448673053115923  -3.2125488380594147  3.830222215594891
C  -0.17004840640748142  -4.236560845979633  2.6500256107801317
C  -0.22896455946772426  -4.845868760440262  1.2104260353680865
C  -0.26546806615737534  -4.980829277476027  -0.34765847391987853
C  -0.27598570890676516  -4.628231521354252  -1.871711749501545
C  0.0  0.0  0.0
C  1.0  -0.5  0.0
C  2.0  0.5  0.0
C  3.0  -0.5  0.0
C  4.0  0.5  0.0
C  5.0  -0.5  0.0
C  6.0  0.5  0.0
C  7.0  -0.5  0.0
C  8.0  0.5  0.0
S  9.0  -0.5  0.0
S  10.0  0.5  0.0
S  11.0  -0.5  0.0
S  12.0  0.5  0.0
S  13.0  -0.5  0.0
S  14.0  0.5  0.0
S  15.0  -0.5  0.0
S  16.0  0.5  0.0
S  17.0  -0.5  0.0

