38
XYZ file generated by PYTHON : coordinates in Angstrom
SI  -0.22039757994814174  -2.4935177182368213  -4.328255340849479
SI  -0.17027218822310874  -1.0339718181099322  -4.888957932041566
SI  -0.10347936835870328  0.5267864476788249  -4.971095257472543
SI  -0.02655726693619377  2.0359791856317764  -4.566627143444825
SI  0.05296444480938943  3.3458760953939772  -3.7151457470545055
SI  0.12730162767204348  4.328255340849478  -2.5000000000000027
SI  0.18917764025556333  4.886954796814417  -1.0401368344212671
SI  0.23253562733274427  4.96728506785094  0.5215421715700841
SI  0.2531314070356124  4.561382867336086  2.032168996010174
SI  0.24894892094761578  3.7089807307431713  3.3438729601668276
C  0.22039757994814177  2.493517718236822  4.328255340849479
C  0.17027218822310883  1.0339718181099333  4.888957932041567
C  0.10347936835870333  -0.5267864476788237  4.971095257472543
C  0.02655726693619382  -2.0359791856317755  4.566627143444825
C  -0.052964444809389416  -3.345876095393977  3.7151457470545055
C  -0.12730162767204345  -4.328255340849478  2.500000000000003
C  -0.1891776402555633  -4.8869547968144165  1.0401368344212678
C  -0.23253562733274424  -4.967285067850941  -0.5215421715700832
C  -0.2531314070356124  -4.561382867336086  -2.0321689960101734
C  -0.2489489209476158  -3.7089807307431717  -3.343872960166827
C  0.0  0.0  0.0
C  1.0  -0.5  0.0
C  2.0  0.5  0.0
C  3.0  -0.5  0.0
C  4.0  0.5  0.0
C  5.0  -0.5  0.0
C  6.0  0.5  0.0
C  7.0  -0.5  0.0
C  8.0  0.5  0.0
S  9.0  -0.5  0.0
S  10.0  0.5  0.0
S  11.0  -0.5  0.0
S  12.0  0.5  0.0
S  13.0  -0.5  0.0
S  14.0  0.5  0.0
S  15.0  -0.5  0.0
S  16.0  0.5  0.0
S  17.0  -0.5  0.0

