38
XYZ file generated by PYTHON : coordinates in Angstrom
SI  0.0  4.330127018922192  -2.500000000000002
SI  0.0  4.890738003669027  -1.0395584540887992
SI  0.0  4.972609476841367  0.522642316338265
SI  0.0  4.567727288213006  2.0336832153789985
SI  0.0  3.7157241273869728  3.3456530317942885
SI  0.0  2.5000000000000027  4.330127018922192
SI  0.0  1.0395584540887999  4.890738003669028
SI  0.0  -0.5226423163382643  4.972609476841367
SI  0.0  -2.0336832153789977  4.567727288213006
SI  0.0  -3.345653031794288  3.715724127386973
C  0.0  -4.330127018922192  2.5000000000000027
C  0.0  -4.890738003669028  1.0395584540888
C  0.0  -4.972609476841368  -0.5226423163382637
C  0.0  -4.567727288213006  -2.0336832153789977
C  0.0  -3.715724127386973  -3.3456530317942885
C  0.0  -2.500000000000003  -4.330127018922191
C  0.0  -1.0395584540888003  -4.890738003669028
C  0.0  0.5226423163382634  -4.972609476841368
C  0.0  2.033683215378997  -4.567727288213006
C  0.0  3.3456530317942876  -3.7157241273869737
C  0.0  0.0  0.0
C  1.0  -0.5  0.0
C  2.0  0.5  0.0
C  3.0  -0.5  0.0
C  4.0  0.5  0.0
C  5.0  -0.5  0.0
C  6.0  0.5  0.0
C  7.0  -0.5  0.0
C  8.0  0.5  0.0
S  9.0  -0.5  0.0
S  10.0  0.5  0.0
S  11.0  -0.5  0.0
S  12.0  0.5  0.0
S  13.0  -0.5  0.0
S  14.0  0.5  0.0
S  15.0  -0.5  0.0
S  16.0  0.5  0.0
S  17.0  -0.5  0.0

