38
XYZ file generated by PYTHON : coordinates in Angstrom
SI  -0.008861066954533764  4.698723723545852  -1.7093615332280736
SI  0.007108558746218635  4.996973578847201  -0.17379447832294082
SI  0.022382349188650043  4.806084844288838  1.3787847910177744
SI  0.0354651993454997  4.144743039209356  2.7963989984551523
SI  0.04507646868983816  3.0776849073292345  3.9402821882662526
SI  0.0502753392125904  1.709361533228074  4.698463103929542
SI  0.05055290924432855  0.1737139424324341  4.996725714862836
SI  0.04588200829640195  -1.3789379793846985  4.805873998590176
SI  0.0367198566976742  -2.796609844153813  4.144589850842431
SI  0.023963309683092612  -3.9405300522506184  3.077604371438728
C  0.00886106695453377  -4.698723723545852  1.7093615332280743
C  -0.007108558746218627  -4.996973578847201  0.17379447832294168
C  -0.022382349188650032  -4.806084844288839  -1.3787847910177735
C  -0.03546519934549969  -4.144743039209356  -2.7963989984551514
C  -0.04507646868983816  -3.077684907329235  -3.9402821882662526
C  -0.0502753392125904  -1.7093615332280745  -4.698463103929542
C  -0.05055290924432855  -0.17371394243243476  -4.996725714862835
C  -0.04588200829640196  1.3789379793846979  -4.805873998590177
C  -0.036719856697674205  2.796609844153813  -4.144589850842431
C  -0.02396330968309262  3.940530052250618  -3.0776043714387282
C  0.0  0.0  0.0
C  1.0  -0.5  0.0
C  2.0  0.5  0.0
C  3.0  -0.5  0.0
C  4.0  0.5  0.0
C  5.0  -0.5  0.0
C  6.0  0.5  0.0
C  7.0  -0.5  0.0
C  8.0  0.5  0.0
S  9.0  -0.5  0.0
S  10.0  0.5  0.0
S  11.0  -0.5  0.0
S  12.0  0.5  0.0
S  13.0  -0.5  0.0
S  14.0  0.5  0.0
S  15.0  -0.5  0.0
S  16.0  0.5  0.0
S  17.0  -0.5  0.0

