38
XYZ file generated by PYTHON : coordinates in Angstrom
SI  0.0  -0.8682408883346515  4.92403876506104
SI  0.0  -2.3473578139294533  4.414737964294634
SI  0.0  -3.596699001693256  3.4732918522949863
SI  0.0  -4.493970231495835  2.1918557339453875
SI  0.0  -4.951340343707851  0.6958655048003277
SI  0.0  -4.92403876506104  -0.8682408883346512
SI  0.0  -4.414737964294635  -2.3473578139294533
SI  0.0  -3.4732918522949867  -3.5966990016932545
SI  0.0  -2.191855733945388  -4.493970231495834
SI  0.0  -0.6958655048003278  -4.951340343707852
C  0.0  0.868240888334651  -4.92403876506104
C  0.0  2.347357813929453  -4.414737964294636
C  0.0  3.596699001693255  -3.4732918522949876
C  0.0  4.493970231495834  -2.191855733945388
C  0.0  4.951340343707851  -0.6958655048003279
C  0.0  4.924038765061041  0.8682408883346506
C  0.0  4.414737964294635  2.347357813929453
C  0.0  3.4732918522949876  3.5966990016932545
C  0.0  2.1918557339453884  4.493970231495834
C  0.0  0.6958655048003285  4.951340343707852
C  0.0  0.0  0.0
C  1.0  -0.5  0.0
C  2.0  0.5  0.0
C  3.0  -0.5  0.0
C  4.0  0.5  0.0
C  5.0  -0.5  0.0
C  6.0  0.5  0.0
C  7.0  -0.5  0.0
C  8.0  0.5  0.0
S  9.0  -0.5  0.0
S  10.0  0.5  0.0
S  11.0  -0.5  0.0
S  12.0  0.5  0.0
S  13.0  -0.5  0.0
S  14.0  0.5  0.0
S  15.0  -0.5  0.0
S  16.0  0.5  0.0
S  17.0  -0.5  0.0

