38
XYZ file generated by PYTHON : coordinates in Angstrom
SI  0.0  -4.330127018922193  -2.5000000000000004
SI  0.0  -3.34565303179429  -3.715724127386971
SI  0.0  -2.0336832153790003  -4.567727288213005
SI  0.0  -0.522642316338267  -4.972609476841367
SI  0.0  1.0395584540887968  -4.890738003669028
SI  0.0  2.5000000000000004  -4.330127018922193
SI  0.0  3.7157241273869714  -3.345653031794291
SI  0.0  4.567727288213004  -2.033683215379001
SI  0.0  4.972609476841367  -0.5226423163382677
SI  0.0  4.890738003669028  1.0395584540887965
C  0.0  4.330127018922193  2.5
C  0.0  3.345653031794291  3.715724127386971
C  0.0  2.0336832153790017  4.567727288213005
C  0.0  0.5226423163382679  4.972609476841367
C  0.0  -1.0395584540887965  4.890738003669028
C  0.0  -2.4999999999999996  4.330127018922194
C  0.0  -3.715724127386971  3.345653031794291
C  0.0  -4.567727288213004  2.033683215379002
C  0.0  -4.972609476841367  0.5226423163382682
C  0.0  -4.890738003669028  -1.039558454088796
C  0.0  0.0  0.0
C  1.0  -0.5  0.0
C  2.0  0.5  0.0
C  3.0  -0.5  0.0
C  4.0  0.5  0.0
C  5.0  -0.5  0.0
C  6.0  0.5  0.0
C  7.0  -0.5  0.0
C  8.0  0.5  0.0
S  9.0  -0.5  0.0
S  10.0  0.5  0.0
S  11.0  -0.5  0.0
S  12.0  0.5  0.0
S  13.0  -0.5  0.0
S  14.0  0.5  0.0
S  15.0  -0.5  0.0
S  16.0  0.5  0.0
S  17.0  -0.5  0.0

