38
XYZ file generated by PYTHON : coordinates in Angstrom
SI  -0.12141729455196354  0.8718119852332393  4.921910371287489
SI  -0.160208648866283  -0.6918114799778551  4.949316120940274
SI  -0.18331766439027772  -2.187715617394706  4.492248324762311
SI  -0.1884822696744803  -3.469470907469965  3.595447963222092
SI  -0.17519691716975208  -4.411610211896834  2.3467001040827054
SI  -0.1447620697437497  -4.921910371287489  0.8682408883346524
SI  -0.10015690231458121  -4.950419650570497  -0.6952077949535775
SI  -0.04574767945268951  -4.494347362853808  -2.190604695474222
SI  0.013139645016856676  -3.598337041301609  -3.471569945561461
SI  0.0707407694828629  -2.350096419058428  -4.412713741527057
C  0.12141729455196353  -0.8718119852332399  -4.921910371287489
C  0.160208648866283  0.6918114799778543  -4.949316120940275
C  0.18331766439027775  2.187715617394705  -4.492248324762312
C  0.1884822696744803  3.469470907469964  -3.5954479632220924
C  0.17519691716975208  4.411610211896833  -2.346700104082706
C  0.14476206974374972  4.921910371287489  -0.868240888334653
C  0.10015690231458123  4.950419650570497  0.6952077949535769
C  0.04574767945268954  4.494347362853809  2.1906046954742213
C  -0.013139645016856664  3.5983370413016096  3.471569945561461
C  -0.07074076948286287  2.350096419058429  4.412713741527057
C  0.0  0.0  0.0
C  1.0  -0.5  0.0
C  2.0  0.5  0.0
C  3.0  -0.5  0.0
C  4.0  0.5  0.0
C  5.0  -0.5  0.0
C  6.0  0.5  0.0
C  7.0  -0.5  0.0
C  8.0  0.5  0.0
S  9.0  -0.5  0.0
S  10.0  0.5  0.0
S  11.0  -0.5  0.0
S  12.0  0.5  0.0
S  13.0  -0.5  0.0
S  14.0  0.5  0.0
S  15.0  -0.5  0.0
S  16.0  0.5  0.0
S  17.0  -0.5  0.0

