38
XYZ file generated by PYTHON : coordinates in Angstrom
SI  -0.29163121695079974  -4.915461376327193  -0.8678655950868035
SI  -0.26946996871511  -4.406696354837972  -2.347000888840566
SI  -0.22093112243391325  -3.4665731908783144  -3.5963953830778723
SI  -0.1507659985712412  -2.1871176899598357  -4.493749639659465
SI  -0.06584284831993627  -0.6935718710030961  -4.951224371716392
SI  0.025525458679023616  0.8678655950868032  -4.92403876506104
SI  0.11439515593615246  2.344350329954447  -4.414853936286094
SI  0.19206705829233237  3.5913537204769366  -3.4735124441313565
SI  0.2509380987729752  4.486810386406422  -2.192159352560771
SI  0.2852455697571776  4.9430667902682695  -0.6962224298892152
C  0.29163121695079974  4.915461376327193  0.8678655950868029
C  0.26946996871511003  4.4066963548379725  2.3470008888405656
C  0.2209311224339133  3.466573190878315  3.596395383077872
C  0.15076599857124123  2.187117689959836  4.493749639659464
C  0.0658428483199363  0.6935718710030966  4.951224371716392
C  -0.02552545867902358  -0.8678655950868026  4.924038765061041
C  -0.11439515593615242  -2.3443503299544464  4.414853936286094
C  -0.19206705829233237  -3.591353720476936  3.473512444131358
C  -0.25093809877297524  -4.486810386406422  2.1921593525607714
C  -0.2852455697571776  -4.9430667902682695  0.6962224298892159
C  0.0  0.0  0.0
C  1.0  -0.5  0.0
C  2.0  0.5  0.0
C  3.0  -0.5  0.0
C  4.0  0.5  0.0
C  5.0  -0.5  0.0
C  6.0  0.5  0.0
C  7.0  -0.5  0.0
C  8.0  0.5  0.0
S  9.0  -0.5  0.0
S  10.0  0.5  0.0
S  11.0  -0.5  0.0
S  12.0  0.5  0.0
S  13.0  -0.5  0.0
S  14.0  0.5  0.0
S  15.0  -0.5  0.0
S  16.0  0.5  0.0
S  17.0  -0.5  0.0

