38
XYZ file generated by PYTHON : coordinates in Angstrom
SI  0.0  -3.2139380484326976  -3.8302222155948895
SI  0.0  -1.8730329670795607  -4.635919272833936
SI  0.0  -0.34878236872062746  -4.987820251299121
SI  0.0  1.2096094779983375  -4.851478631379983
SI  0.0  2.6495963211660234  -4.24024048078213
SI  0.0  3.8302222155948895  -3.2139380484326976
SI  0.0  4.635919272833937  -1.8730329670795614
SI  0.0  4.987820251299121  -0.34878236872062807
SI  0.0  4.851478631379982  1.2096094779983366
SI  0.0  4.24024048078213  2.6495963211660234
C  0.0  3.213938048432698  3.830222215594889
C  0.0  1.873032967079562  4.635919272833936
C  0.0  0.3487823687206286  4.987820251299121
C  0.0  -1.2096094779983366  4.851478631379982
C  0.0  -2.649596321166023  4.240240480782131
C  0.0  -3.830222215594889  3.213938048432698
C  0.0  -4.635919272833936  1.873032967079562
C  0.0  -4.987820251299121  0.3487823687206291
C  0.0  -4.851478631379983  -1.2096094779983364
C  0.0  -4.240240480782131  -2.649596321166023
C  0.0  0.0  0.0
C  1.0  -0.5  0.0
C  2.0  0.5  0.0
C  3.0  -0.5  0.0
C  4.0  0.5  0.0
C  5.0  -0.5  0.0
C  6.0  0.5  0.0
C  7.0  -0.5  0.0
C  8.0  0.5  0.0
S  9.0  -0.5  0.0
S  10.0  0.5  0.0
S  11.0  -0.5  0.0
S  12.0  0.5  0.0
S  13.0  -0.5  0.0
S  14.0  0.5  0.0
S  15.0  -0.5  0.0
S  16.0  0.5  0.0
S  17.0  -0.5  0.0

