38
XYZ file generated by PYTHON : coordinates in Angstrom
SI  -0.28500237297632186  -4.690080681194944  1.7093615332280752
SI  -0.2865892981933683  -4.988753557098756  0.17379447832294231
SI  -0.2601228661181938  -4.799092476143853  -1.378784791017773
SI  -0.20819379552479175  -4.139662786380554  -2.796398998455151
SI  -0.13588526565395412  -3.075014060359703  -3.9402821882662518
SI  -0.05027533921259046  -1.7093615332280754  -4.698463103929542
SI  0.040255887719787296  -0.17638478940196833  -4.996725714862836
SI  0.12684658788288997  1.3738577265558947  -4.805873998590177
SI  0.20102066023186943  2.789617476008826  -4.144589850842432
SI  0.255517429764057  3.9323100305021725  -3.077604371438729
C  0.28500237297632186  4.690080681194944  -1.7093615332280758
C  0.28658929819336837  4.9887535570987565  -0.17379447832294317
C  0.26012286611819385  4.799092476143853  1.378784791017772
C  0.20819379552479172  4.139662786380554  2.7963989984551505
C  0.13588526565395415  3.0750140603597034  3.9402821882662518
C  0.050275339212590496  1.709361533228076  4.698463103929542
C  -0.040255887719787255  0.176384789401969  4.996725714862835
C  -0.12684658788288994  -1.373857726555894  4.805873998590178
C  -0.20102066023186943  -2.789617476008826  4.144589850842432
C  -0.255517429764057  -3.932310030502172  3.0776043714387296
C  0.0  0.0  0.0
C  1.0  -0.5  0.0
C  2.0  0.5  0.0
C  3.0  -0.5  0.0
C  4.0  0.5  0.0
C  5.0  -0.5  0.0
C  6.0  0.5  0.0
C  7.0  -0.5  0.0
C  8.0  0.5  0.0
S  9.0  -0.5  0.0
S  10.0  0.5  0.0
S  11.0  -0.5  0.0
S  12.0  0.5  0.0
S  13.0  -0.5  0.0
S  14.0  0.5  0.0
S  15.0  -0.5  0.0
S  16.0  0.5  0.0
S  17.0  -0.5  0.0

