38
XYZ file generated by PYTHON : coordinates in Angstrom
SI  -0.2203975799481417  -2.4935177182368182  4.32825534084948
SI  -0.24894892094761573  -3.708980730743168  3.3438729601668307
SI  -0.2531314070356124  -4.561382867336084  2.0321689960101774
SI  -0.2325356273327443  -4.96728506785094  0.5215421715700885
SI  -0.18917764025556336  -4.886954796814417  -1.0401368344212625
SI  -0.12730162767204356  -4.328255340849481  -2.4999999999999987
SI  -0.05296444480938954  -3.345876095393981  -3.715145747054503
SI  0.026557266936193646  -2.0359791856317804  -4.566627143444823
SI  0.10347936835870312  -0.5267864476788293  -4.971095257472542
SI  0.17027218822310866  1.0339718181099282  -4.888957932041567
C  0.22039757994814166  2.493517718236818  -4.32825534084948
C  0.24894892094761575  3.708980730743168  -3.343872960166832
C  0.2531314070356124  4.561382867336083  -2.0321689960101788
C  0.23253562733274427  4.9672850678509395  -0.5215421715700894
C  0.18917764025556338  4.886954796814417  1.040136834421262
C  0.1273016276720436  4.328255340849481  2.4999999999999982
C  0.05296444480938957  3.3458760953939812  3.7151457470545024
C  -0.026557266936193594  2.0359791856317813  4.566627143444823
C  -0.10347936835870311  0.5267864476788298  4.971095257472542
C  -0.17027218822310866  -1.0339718181099278  4.888957932041568
C  0.0  0.0  0.0
C  1.0  -0.5  0.0
C  2.0  0.5  0.0
C  3.0  -0.5  0.0
C  4.0  0.5  0.0
C  5.0  -0.5  0.0
C  6.0  0.5  0.0
C  7.0  -0.5  0.0
C  8.0  0.5  0.0
S  9.0  -0.5  0.0
S  10.0  0.5  0.0
S  11.0  -0.5  0.0
S  12.0  0.5  0.0
S  13.0  -0.5  0.0
S  14.0  0.5  0.0
S  15.0  -0.5  0.0
S  16.0  0.5  0.0
S  17.0  -0.5  0.0

