38
XYZ file generated by PYTHON : coordinates in Angstrom
SI  -0.0022322229800558653  4.924104418678101  0.8678655950868028
SI  -0.010010770732039709  4.414916376586417  2.3470008888405656
SI  -0.01680939449563048  3.473565559023301  3.596395383077872
SI  -0.021962597608050794  2.192197942788639  4.493749639659464
SI  -0.02496594864417964  0.6962427179726297  4.951224371716392
SI  -0.025525458679023613  -0.8678655950868025  4.92403876506104
SI  -0.02358635897203654  -2.3470211769239793  4.414853936286095
SI  -0.019338462113040408  -3.596433973305739  3.473512444131357
SI  -0.013197581843431512  -4.493802754551408  2.192159352560772
SI  -0.005764830310027878  -4.951286812016715  0.6962224298892159
C  0.0022322229800558623  -4.924104418678101  -0.8678655950868023
C  0.010010770732039707  -4.414916376586418  -2.3470008888405647
C  0.016809394495630472  -3.473565559023302  -3.5963953830778714
C  0.02196259760805079  -2.1921979427886398  -4.493749639659463
C  0.02496594864417964  -0.6962427179726302  -4.951224371716392
C  0.025525458679023613  0.8678655950868018  -4.924038765061041
C  0.02358635897203654  2.347021176923979  -4.414853936286095
C  0.01933846211304041  3.5964339733057384  -3.473512444131358
C  0.013197581843431514  4.493802754551408  -2.1921593525607723
C  0.005764830310027881  4.951286812016715  -0.6962224298892166
C  0.0  0.0  0.0
C  1.0  -0.5  0.0
C  2.0  0.5  0.0
C  3.0  -0.5  0.0
C  4.0  0.5  0.0
C  5.0  -0.5  0.0
C  6.0  0.5  0.0
C  7.0  -0.5  0.0
C  8.0  0.5  0.0
S  9.0  -0.5  0.0
S  10.0  0.5  0.0
S  11.0  -0.5  0.0
S  12.0  0.5  0.0
S  13.0  -0.5  0.0
S  14.0  0.5  0.0
S  15.0  -0.5  0.0
S  16.0  0.5  0.0
S  17.0  -0.5  0.0

