38
XYZ file generated by PYTHON : coordinates in Angstrom
SI  0.0  1.7101007166283448  -4.698463103929542
SI  0.0  3.0783073766282922  -3.940053768033609
SI  0.0  4.1451878627752095  -2.7959645173537333
SI  0.0  4.806308479691595  -1.3781867790849949
SI  0.0  4.9969541350954785  0.1744974835125059
SI  0.0  4.698463103929542  1.7101007166283446
SI  0.0  3.9400537680336094  3.0783073766282922
SI  0.0  2.7959645173537333  4.145187862775209
SI  0.0  1.3781867790849958  4.8063084796915945
SI  0.0  -0.17449748351250569  4.9969541350954785
C  0.0  -1.7101007166283442  4.698463103929542
C  0.0  -3.078307376628292  3.94005376803361
C  0.0  -4.1451878627752095  2.795964517353734
C  0.0  -4.8063084796915945  1.3781867790849958
C  0.0  -4.9969541350954785  -0.17449748351250546
C  0.0  -4.698463103929542  -1.7101007166283442
C  0.0  -3.94005376803361  -3.078307376628292
C  0.0  -2.7959645173537346  -4.145187862775209
C  0.0  -1.3781867790849962  -4.8063084796915945
C  0.0  0.17449748351250507  -4.9969541350954785
C  0.0  0.0  0.0
C  1.0  -0.5  0.0
C  2.0  0.5  0.0
C  3.0  -0.5  0.0
C  4.0  0.5  0.0
C  5.0  -0.5  0.0
C  6.0  0.5  0.0
C  7.0  -0.5  0.0
C  8.0  0.5  0.0
S  9.0  -0.5  0.0
S  10.0  0.5  0.0
S  11.0  -0.5  0.0
S  12.0  0.5  0.0
S  13.0  -0.5  0.0
S  14.0  0.5  0.0
S  15.0  -0.5  0.0
S  16.0  0.5  0.0
S  17.0  -0.5  0.0

