38
XYZ file generated by PYTHON : coordinates in Angstrom
SI  -0.1214172945519636  0.8718119852332371  -4.92191037128749
SI  -0.07074076948286297  2.350096419058426  -4.412713741527058
SI  -0.013139645016856747  3.5983370413016074  -3.471569945561464
SI  0.045747679452689455  4.494347362853807  -2.190604695474225
SI  0.10015690231458117  4.950419650570496  -0.6952077949535804
SI  0.1447620697437497  4.92191037128749  0.8682408883346495
SI  0.17519691716975214  4.411610211896836  2.346700104082703
SI  0.18848226967448034  3.469470907469967  3.5954479632220893
SI  0.1833176643902778  2.1877156173947085  4.4922483247623095
SI  0.16020864886628308  0.6918114799778579  4.949316120940273
C  0.12141729455196361  -0.8718119852332366  4.92191037128749
C  0.07074076948286301  -2.3500964190584255  4.4127137415270585
C  0.0131396450168568  -3.5983370413016065  3.471569945561465
C  -0.04574767945268942  -4.494347362853806  2.1906046954742253
C  -0.10015690231458116  -4.950419650570497  0.6952077949535809
C  -0.1447620697437497  -4.92191037128749  -0.868240888334649
C  -0.1751969171697521  -4.411610211896836  -2.3467001040827022
C  -0.18848226967448037  -3.469470907469968  -3.5954479632220897
C  -0.1833176643902778  -2.187715617394709  -4.4922483247623095
C  -0.1602086488662831  -0.6918114799778584  -4.949316120940273
C  0.0  0.0  0.0
C  1.0  -0.5  0.0
C  2.0  0.5  0.0
C  3.0  -0.5  0.0
C  4.0  0.5  0.0
C  5.0  -0.5  0.0
C  6.0  0.5  0.0
C  7.0  -0.5  0.0
C  8.0  0.5  0.0
S  9.0  -0.5  0.0
S  10.0  0.5  0.0
S  11.0  -0.5  0.0
S  12.0  0.5  0.0
S  13.0  -0.5  0.0
S  14.0  0.5  0.0
S  15.0  -0.5  0.0
S  16.0  0.5  0.0
S  17.0  -0.5  0.0

