38
XYZ file generated by PYTHON : coordinates in Angstrom
SI  -0.019685117853626113  4.330705992976712  2.4989193861608823
SI  -0.041433676017456365  3.346537596882251  3.7146964025536793
SI  -0.05912641728730211  2.034786784106466  4.566853053252802
SI  -0.0710314528750938  0.5238568637091767  4.97197430796331
SI  -0.07598343495023804  -1.038351816433356  4.890404075628384
SI  -0.07349762900473183  -2.498919386160882  4.330127018922194
SI  -0.06381736304414974  -3.714875315375828  3.345986959834936
SI  -0.047890208947092415  -4.567193365663507  2.0343183842570585
SI  -0.027275227527587688  -4.972442707812718  0.5235165512984714
SI  -0.0039903567999980145  -4.8909547126757  -1.0385307292555044
C  0.019685117853626102  -4.330705992976712  -2.498919386160882
C  0.04143367601745636  -3.346537596882252  -3.7146964025536793
C  0.0591264172873021  -2.0347867841064673  -4.566853053252801
C  0.07103145287509378  -0.5238568637091776  -4.97197430796331
C  0.07598343495023804  1.0383518164333556  -4.890404075628384
C  0.07349762900473183  2.4989193861608814  -4.330127018922194
C  0.06381736304414974  3.7148753153758274  -3.3459869598349363
C  0.04789020894709243  4.567193365663507  -2.0343183842570594
C  0.027275227527587695  4.972442707812718  -0.5235165512984717
C  0.003990356799998024  4.8909547126757005  1.0385307292555037
C  0.0  0.0  0.0
C  1.0  -0.5  0.0
C  2.0  0.5  0.0
C  3.0  -0.5  0.0
C  4.0  0.5  0.0
C  5.0  -0.5  0.0
C  6.0  0.5  0.0
C  7.0  -0.5  0.0
C  8.0  0.5  0.0
S  9.0  -0.5  0.0
S  10.0  0.5  0.0
S  11.0  -0.5  0.0
S  12.0  0.5  0.0
S  13.0  -0.5  0.0
S  14.0  0.5  0.0
S  15.0  -0.5  0.0
S  16.0  0.5  0.0
S  17.0  -0.5  0.0

