38
XYZ file generated by PYTHON : coordinates in Angstrom
SI  -0.2938634399308556  -4.991356957649092  6.120587255178386e-16
SI  -0.27948073944714963  -4.747062559727322  -1.5450849718747364
SI  -0.2377405169295437  -4.03809260372975  -2.9389262614623655
SI  -0.17272859617929204  -2.9338460086335636  -4.045084971874737
SI  -0.09080879696411592  -1.542414124905205  -4.755282581475767
SI  -3.5995673276000546e-17  -9.176911915971804e-16  -5.0
SI  0.09080879696411588  1.5424141249052032  -4.755282581475768
SI  0.17272859617929193  2.933846008633562  -4.045084971874737
SI  0.23774051692954368  4.0380926037297495  -2.938926261462367
SI  0.27948073944714963  4.747062559727322  -1.5450849718747381
C  0.2938634399308556  4.991356957649092  -1.2243821250915154e-15
C  0.2794807394471497  4.747062559727323  1.5450849718747357
C  0.23774051692954376  4.038092603729751  2.9389262614623646
C  0.17272859617929207  2.933846008633564  4.045084971874736
C  0.09080879696411595  1.5424141249052055  4.755282581475767
C  7.198356538577582e-17  1.5289561237558634e-15  5.0
C  -0.09080879696411584  -1.5424141249052026  4.755282581475768
C  -0.1727285961792919  -2.9338460086335614  4.045084971874738
C  -0.23774051692954368  -4.0380926037297495  2.9389262614623672
C  -0.27948073944714963  -4.747062559727322  1.5450849718747388
C  0.0  0.0  0.0
C  1.0  -0.5  0.0
C  2.0  0.5  0.0
C  3.0  -0.5  0.0
C  4.0  0.5  0.0
C  5.0  -0.5  0.0
C  6.0  0.5  0.0
C  7.0  -0.5  0.0
C  8.0  0.5  0.0
S  9.0  -0.5  0.0
S  10.0  0.5  0.0
S  11.0  -0.5  0.0
S  12.0  0.5  0.0
S  13.0  -0.5  0.0
S  14.0  0.5  0.0
S  15.0  -0.5  0.0
S  16.0  0.5  0.0
S  17.0  -0.5  0.0

