38
XYZ file generated by PYTHON : coordinates in Angstrom
SI  -0.008861066954533764  4.698723723545852  1.7093615332280743
SI  -0.023963309683092612  3.940530052250618  3.077604371438728
SI  -0.036719856697674205  2.796609844153814  4.144589850842431
SI  -0.04588200829640197  1.378937979384699  4.805873998590177
SI  -0.050552909244328564  -0.17371394243243388  4.996725714862835
SI  -0.05027533921259042  -1.709361533228074  4.698463103929543
SI  -0.04507646868983819  -3.077684907329235  3.9402821882662535
SI  -0.035465199345499715  -4.144743039209355  2.7963989984551523
SI  -0.02238234918865006  -4.806084844288838  1.3787847910177746
SI  -0.007108558746218645  -4.996973578847201  -0.17379447832294084
C  0.008861066954533757  -4.698723723545852  -1.7093615332280736
C  0.02396330968309261  -3.9405300522506193  -3.0776043714387273
C  0.0367198566976742  -2.796609844153815  -4.14458985084243
C  0.045882008296401953  -1.3789379793846996  -4.805873998590176
C  0.050552909244328564  0.17371394243243343  -4.996725714862835
C  0.05027533921259042  1.7093615332280734  -4.698463103929543
C  0.04507646868983819  3.0776849073292345  -3.940282188266254
C  0.03546519934549972  4.144743039209355  -2.796398998455153
C  0.022382349188650064  4.806084844288838  -1.378784791017775
C  0.007108558746218651  4.996973578847201  0.17379447832294023
C  0.0  0.0  0.0
C  1.0  -0.5  0.0
C  2.0  0.5  0.0
C  3.0  -0.5  0.0
C  4.0  0.5  0.0
C  5.0  -0.5  0.0
C  6.0  0.5  0.0
C  7.0  -0.5  0.0
C  8.0  0.5  0.0
S  9.0  -0.5  0.0
S  10.0  0.5  0.0
S  11.0  -0.5  0.0
S  12.0  0.5  0.0
S  13.0  -0.5  0.0
S  14.0  0.5  0.0
S  15.0  -0.5  0.0
S  16.0  0.5  0.0
S  17.0  -0.5  0.0

