38
XYZ file generated by PYTHON : coordinates in Angstrom
SI  -0.0022322229800558653  4.924104418678101  -0.867865595086803
SI  0.005764830310027879  4.951286812016715  0.6962224298892152
SI  0.013197581843431514  4.4938027545514085  2.192159352560771
SI  0.019338462113040415  3.5964339733057398  3.473512444131357
SI  0.023586358972036543  2.3470211769239797  4.414853936286093
SI  0.025525458679023623  0.8678655950868034  4.92403876506104
SI  0.024965948644179652  -0.6962427179726289  4.951224371716393
SI  0.0219625976080508  -2.192197942788638  4.493749639659464
SI  0.016809394495630486  -3.4735655590233  3.5963953830778723
SI  0.010010770732039714  -4.414916376586417  2.347000888840566
C  0.0022322229800558683  -4.924104418678101  0.8678655950868036
C  -0.005764830310027874  -4.951286812016716  -0.6962224298892145
C  -0.01319758184343151  -4.493802754551409  -2.19215935256077
C  -0.01933846211304041  -3.59643397330574  -3.4735124441313556
C  -0.023586358972036543  -2.34702117692398  -4.414853936286093
C  -0.025525458679023623  -0.8678655950868039  -4.92403876506104
C  -0.024965948644179652  0.6962427179726283  -4.951224371716392
C  -0.021962597608050805  2.192197942788637  -4.493749639659465
C  -0.016809394495630486  3.4735655590233  -3.5963953830778728
C  -0.010010770732039717  4.414916376586417  -2.3470008888405665
C  0.0  0.0  0.0
C  1.0  -0.5  0.0
C  2.0  0.5  0.0
C  3.0  -0.5  0.0
C  4.0  0.5  0.0
C  5.0  -0.5  0.0
C  6.0  0.5  0.0
C  7.0  -0.5  0.0
C  8.0  0.5  0.0
S  9.0  -0.5  0.0
S  10.0  0.5  0.0
S  11.0  -0.5  0.0
S  12.0  0.5  0.0
S  13.0  -0.5  0.0
S  14.0  0.5  0.0
S  15.0  -0.5  0.0
S  16.0  0.5  0.0
S  17.0  -0.5  0.0

