38
XYZ file generated by PYTHON : coordinates in Angstrom
SI  0.0  -3.2139380484326967  3.83022221559489
SI  0.0  -4.24024048078213  2.6495963211660243
SI  0.0  -4.851478631379983  1.2096094779983386
SI  0.0  -4.987820251299121  -0.34878236872062673
SI  0.0  -4.635919272833937  -1.8730329670795598
SI  0.0  -3.8302222155948904  -3.2139380484326967
SI  0.0  -2.649596321166025  -4.24024048078213
SI  0.0  -1.2096094779983388  -4.851478631379982
SI  0.0  0.34878236872062546  -4.987820251299121
SI  0.0  1.8730329670795596  -4.635919272833936
C  0.0  3.2139380484326963  -3.8302222155948904
C  0.0  4.24024048078213  -2.6495963211660256
C  0.0  4.851478631379982  -1.2096094779983395
C  0.0  4.987820251299121  0.34878236872062574
C  0.0  4.635919272833937  1.8730329670795596
C  0.0  3.830222215594891  3.2139380484326963
C  0.0  2.6495963211660256  4.24024048078213
C  0.0  1.20960947799834  4.851478631379982
C  0.0  -0.3487823687206251  4.987820251299121
C  0.0  -1.8730329670795591  4.635919272833937
C  0.0  0.0  0.0
C  1.0  -0.5  0.0
C  2.0  0.5  0.0
C  3.0  -0.5  0.0
C  4.0  0.5  0.0
C  5.0  -0.5  0.0
C  6.0  0.5  0.0
C  7.0  -0.5  0.0
C  8.0  0.5  0.0
S  9.0  -0.5  0.0
S  10.0  0.5  0.0
S  11.0  -0.5  0.0
S  12.0  0.5  0.0
S  13.0  -0.5  0.0
S  14.0  0.5  0.0
S  15.0  -0.5  0.0
S  16.0  0.5  0.0
S  17.0  -0.5  0.0

