38
XYZ file generated by PYTHON : coordinates in Angstrom
SI  -0.28500237297632186  -4.690080681194945  -1.709361533228074
SI  -0.25551742976405706  -3.932310030502173  -3.0776043714387273
SI  -0.2010206602318695  -2.789617476008828  -4.144589850842431
SI  -0.12684658788289005  -1.3738577265558969  -4.805873998590177
SI  -0.040255887719787366  0.1763847894019663  -4.996725714862835
SI  0.05027533921259039  1.7093615332280736  -4.698463103929543
SI  0.13588526565395406  3.075014060359702  -3.9402821882662535
SI  0.20819379552479167  4.139662786380552  -2.7963989984551523
SI  0.26012286611819374  4.799092476143852  -1.3787847910177748
SI  0.2865892981933683  4.988753557098756  0.17379447832294062
C  0.28500237297632186  4.690080681194945  1.7093615332280734
C  0.2555174297640571  3.932310030502174  3.0776043714387273
C  0.20102066023186957  2.7896174760088295  4.14458985084243
C  0.12684658788289008  1.3738577265558976  4.805873998590176
C  0.040255887719787393  -0.17638478940196586  4.996725714862835
C  -0.05027533921259036  -1.7093615332280732  4.698463103929543
C  -0.13588526565395403  -3.0750140603597016  3.940282188266254
C  -0.20819379552479164  -4.139662786380552  2.7963989984551536
C  -0.26012286611819374  -4.799092476143852  1.3787847910177753
C  -0.2865892981933683  -4.988753557098756  -0.17379447832294
C  0.0  0.0  0.0
C  1.0  -0.5  0.0
C  2.0  0.5  0.0
C  3.0  -0.5  0.0
C  4.0  0.5  0.0
C  5.0  -0.5  0.0
C  6.0  0.5  0.0
C  7.0  -0.5  0.0
C  8.0  0.5  0.0
S  9.0  -0.5  0.0
S  10.0  0.5  0.0
S  11.0  -0.5  0.0
S  12.0  0.5  0.0
S  13.0  -0.5  0.0
S  14.0  0.5  0.0
S  15.0  -0.5  0.0
S  16.0  0.5  0.0
S  17.0  -0.5  0.0

