38
XYZ file generated by PYTHON : coordinates in Angstrom
SI  0.0  3.2139380484326963  -3.8302222155948904
SI  0.0  4.240240480782129  -2.6495963211660247
SI  0.0  4.851478631379983  -1.2096094779983393
SI  0.0  4.987820251299122  0.34878236872062585
SI  0.0  4.635919272833937  1.8730329670795591
SI  0.0  3.830222215594891  3.213938048432696
SI  0.0  2.6495963211660256  4.24024048078213
SI  0.0  1.2096094779983397  4.851478631379982
SI  0.0  -0.3487823687206247  4.987820251299121
SI  0.0  -1.8730329670795591  4.635919272833937
C  0.0  -3.213938048432696  3.830222215594891
C  0.0  -4.240240480782129  2.649596321166026
C  0.0  -4.851478631379982  1.2096094779983404
C  0.0  -4.987820251299121  -0.34878236872062485
C  0.0  -4.635919272833937  -1.873032967079559
C  0.0  -3.8302222155948913  -3.2139380484326954
C  0.0  -2.649596321166026  -4.240240480782129
C  0.0  -1.2096094779983406  -4.851478631379982
C  0.0  0.34878236872062435  -4.987820251299121
C  0.0  1.8730329670795585  -4.635919272833937
C  0.0  0.0  0.0
C  1.0  -0.5  0.0
C  2.0  0.5  0.0
C  3.0  -0.5  0.0
C  4.0  0.5  0.0
C  5.0  -0.5  0.0
C  6.0  0.5  0.0
C  7.0  -0.5  0.0
C  8.0  0.5  0.0
S  9.0  -0.5  0.0
S  10.0  0.5  0.0
S  11.0  -0.5  0.0
S  12.0  0.5  0.0
S  13.0  -0.5  0.0
S  14.0  0.5  0.0
S  15.0  -0.5  0.0
S  16.0  0.5  0.0
S  17.0  -0.5  0.0

