38
XYZ file generated by PYTHON : coordinates in Angstrom
SI  0.0  4.698463103929543  1.7101007166283435
SI  0.0  3.9400537680336094  3.078307376628291
SI  0.0  2.7959645173537346  4.145187862775209
SI  0.0  1.3781867790849964  4.8063084796915945
SI  0.0  -0.17449748351250435  4.9969541350954785
SI  0.0  -1.7101007166283433  4.698463103929543
SI  0.0  -3.0783073766282913  3.9400537680336103
SI  0.0  -4.145187862775208  2.7959645173537346
SI  0.0  -4.806308479691594  1.378186779084997
SI  0.0  -4.9969541350954785  -0.1744974835125042
C  0.0  -4.698463103929543  -1.7101007166283428
C  0.0  -3.9400537680336103  -3.078307376628291
C  0.0  -2.7959645173537355  -4.145187862775209
C  0.0  -1.3781867790849973  -4.8063084796915945
C  0.0  0.1744974835125039  -4.9969541350954785
C  0.0  1.7101007166283426  -4.698463103929543
C  0.0  3.0783073766282905  -3.9400537680336107
C  0.0  4.145187862775208  -2.7959645173537355
C  0.0  4.8063084796915945  -1.3781867790849975
C  0.0  4.9969541350954785  0.17449748351250358
C  0.0  0.0  0.0
C  1.0  -0.5  0.0
C  2.0  0.5  0.0
C  3.0  -0.5  0.0
C  4.0  0.5  0.0
C  5.0  -0.5  0.0
C  6.0  0.5  0.0
C  7.0  -0.5  0.0
C  8.0  0.5  0.0
S  9.0  -0.5  0.0
S  10.0  0.5  0.0
S  11.0  -0.5  0.0
S  12.0  0.5  0.0
S  13.0  -0.5  0.0
S  14.0  0.5  0.0
S  15.0  -0.5  0.0
S  16.0  0.5  0.0
S  17.0  -0.5  0.0

