8

 C                 -2.56472493   -1.97411000    0.00000000
 H                 -3.63472493   -1.97409682    0.00000000
 C                 -2.05138271   -1.24815373    1.25740497
 H                 -0.98138452   -1.24986042    1.25838372
 O                 -2.52589727    0.10082152    1.25609856
 H                 -2.20613257    0.55376304    2.03980420
 O                 -2.08805001   -1.30000775   -1.16759033
 H                 -2.21116983   -1.86299755   -1.93536894


